Circuit: * C:\Users\Karan\Desktop\workshop\extc\sem 6\ce-4(vlsi and tv)\4.3\ptl.asc

WARNING: Node N002 is floating.

Direct Newton iteration for .op point succeeded.

Date: Sat Apr 18 14:39:17 2015
Total elapsed time: 0.073 seconds.

tnom = 27
temp = 27
method = modified trap
totiter = 2608
traniter = 2582
tranpoints = 816
accept = 753
rejected = 63
matrix size = 11
fillins = 0
solver = Normal
Matrix Compiler1: 450 bytes object code size  0.3/0.1/[0.0]
Matrix Compiler2:      72 opcodes  0.2/[0.2]/0.4


