Circuit: * C:\Users\Karan\Desktop\workshop\extc\sem 6\ce-4(vlsi and tv)\4.3\transmission_gate_crkt.asc

WARNING: Node NC_01 is floating.

Direct Newton iteration failed to find .op point.  (Use ".option noopiter" to skip.)
Starting Gmin stepping
Gmin = 10
Gmin = 1.07374
Gmin = 0.115292
Gmin = 0.0123794
Gmin = 0.00132923
Gmin = 0.000142725
Gmin = 1.5325e-005
Gmin = 1.6455e-006
Gmin = 1.76685e-007
Gmin = 1.89714e-008
Gmin = 2.03704e-009
Gmin = 2.18725e-010
Gmin = 2.34854e-011
Gmin = 2.52173e-012
Gmin = 2.70769e-013
Gmin = 0
Gmin stepping succeeded in finding the operating point.


Date: Sat Apr 18 15:33:46 2015
Total elapsed time: 0.089 seconds.

tnom = 27
temp = 27
method = modified trap
totiter = 2287
traniter = 1897
tranpoints = 799
accept = 750
rejected = 49
matrix size = 11
fillins = 0
solver = Normal
Matrix Compiler1: 486 bytes object code size  0.3/0.2/[0.1]
Matrix Compiler2: 1.03 KB object code size  0.2/0.2/[0.2]


