Circuit: * C:\Users\Karan\Desktop\workshop\extc\sem 6\ce-4(vlsi and tv)\exp3 4.2\nand.asc

Direct Newton iteration for .op point succeeded.

Date: Wed Apr 22 17:06:13 2015
Total elapsed time: 0.189 seconds.

tnom = 27
temp = 27
method = modified trap
totiter = 3001
traniter = 2996
tranpoints = 868
accept = 797
rejected = 71
matrix size = 8
fillins = 0
solver = Normal
Matrix Compiler1: 318 bytes object code size  0.4/0.3/[0.1]
Matrix Compiler2: 630 bytes object code size  0.3/0.5/[0.2]


