Circuit: * C:\Users\Karan\Desktop\workshop\extc\sem 6\ce-4(vlsi and tv)\18.3\fulladder.asc

WARNING: Node N009 is floating.
WARNING: Node N011 is floating.

Direct Newton iteration for .op point succeeded.

Date: Fri Apr 03 20:05:20 2015
Total elapsed time: 0.449 seconds.

tnom = 27
temp = 27
method = modified trap
totiter = 10850
traniter = 10821
tranpoints = 2261
accept = 1848
rejected = 413
matrix size = 30
fillins = 2
solver = Normal
Thread vector: 16.4/14.6[2] 6.8/4.2[2] 3.2/2.6[2] 0.4/3.5[1]  2592/500
Matrix Compiler1: 2.31 KB object code size  1.4/0.5/[0.3]
Matrix Compiler2:     269 opcodes  0.6/[0.6]/1.3


