Circuit: * C:\Users\Karan\Desktop\workshop\extc\sem 6\ce-4(vlsi and tv)\exp2 28.1\cmos.asc

WARNING: Node N003 is floating.


Date: Sat Apr 18 13:48:06 2015
Total elapsed time: 0.108 seconds.

tnom = 27
temp = 27
method = trap
totiter = 65
traniter = 0
tranpoints = 0
accept = 0
rejected = 0
matrix size = 6
fillins = 0
solver = Normal
Matrix Compiler1: 218 bytes object code size
Matrix Compiler2: 476 bytes object code size

