Circuit: * C:\Users\Karan\Desktop\workshop\extc\sem 6\ce-4(vlsi and tv)\exp2 28.1\Resistive_load.asc


Date: Sat Apr 18 13:38:44 2015
Total elapsed time: 0.120 seconds.

tnom = 27
temp = 27
method = trap
totiter = 25
traniter = 0
tranpoints = 0
accept = 0
rejected = 0
matrix size = 5
fillins = 0
solver = Normal
Matrix Compiler1: 114 bytes object code size
Matrix Compiler2: 301 bytes object code size

