Circuit: * C:\Users\Karan\Desktop\workshop\extc\sem 6\ce-4(vlsi and tv)\exp1 21.1\exp1.asc


Date: Sat Apr 18 13:27:56 2015
Total elapsed time: 0.135 seconds.

tnom = 27
temp = 27
method = trap
totiter = 15
traniter = 0
tranpoints = 0
accept = 0
rejected = 0
matrix size = 4
fillins = 0
solver = Normal
Matrix Compiler1: 118 bytes object code size
Matrix Compiler2: 216 bytes object code size

